Version 4
SHEET 1 880 1136
WIRE 528 -496 0 -496
WIRE -64 -320 -160 -320
WIRE 0 -320 0 -416
WIRE 272 -320 0 -320
WIRE -160 -304 -160 -320
WIRE 0 -256 0 -320
WIRE 96 -192 96 -240
WIRE -80 80 -112 80
WIRE 16 80 -16 80
WIRE 480 80 224 80
WIRE 528 80 528 -496
WIRE 528 80 480 80
WIRE 608 80 528 80
WIRE -112 112 -112 80
WIRE 16 112 -112 112
WIRE 480 112 480 80
WIRE 608 128 608 80
WIRE -416 176 -416 144
WIRE -336 176 -416 176
WIRE -304 176 -336 176
WIRE 16 176 -240 176
WIRE 272 176 272 -320
WIRE 272 176 224 176
WIRE 480 208 480 192
WIRE 608 208 608 192
WIRE 608 208 480 208
WIRE -336 224 -336 176
WIRE 480 224 480 208
WIRE -144 240 -240 240
WIRE 16 240 -64 240
WIRE -240 272 -240 240
WIRE 16 272 -160 272
WIRE 256 272 224 272
WIRE 256 304 256 272
WIRE 256 304 224 304
WIRE -336 320 -336 304
WIRE -240 320 -240 272
WIRE -240 320 -336 320
WIRE -240 352 -240 320
WIRE 256 352 256 304
WIRE 224 592 16 592
WIRE 416 592 288 592
WIRE 416 640 416 592
WIRE 416 640 160 640
WIRE 368 736 288 736
WIRE 160 832 160 640
WIRE 256 832 160 832
WIRE 416 848 416 640
WIRE 416 848 320 848
WIRE 496 848 416 848
WIRE -416 864 -416 176
WIRE -96 864 -416 864
WIRE 16 864 16 592
WIRE 16 864 -16 864
WIRE 48 864 16 864
WIRE 176 864 128 864
WIRE 256 864 176 864
WIRE 368 960 368 736
WIRE 368 960 288 960
FLAG 256 352 0
FLAG -240 352 0
FLAG -416 144 Vout
IOPIN -416 144 Out
FLAG -160 -224 0
FLAG 480 224 0
FLAG 0 -176 0
FLAG 368 960 0
FLAG 176 928 0
FLAG 496 848 Vout2
IOPIN 496 848 Out
DATAFLAG -384 176 ""
SYMBOL CD4046Bg 128 224 R0
SYMATTR InstName U1
SYMBOL cap -16 64 R90
WINDOW 0 0 32 VBottom 2
WINDOW 3 32 32 VTop 2
SYMATTR InstName C1
SYMATTR Value 750p
SYMBOL res -144 256 R90
WINDOW 0 0 56 VBottom 2
WINDOW 3 32 56 VTop 2
SYMATTR InstName R1
SYMATTR Value 100k
SYMBOL res -48 224 R90
WINDOW 0 0 56 VBottom 2
WINDOW 3 32 56 VTop 2
SYMATTR InstName R2
SYMATTR Value 210k
SYMBOL res -352 208 R0
SYMATTR InstName R3
SYMATTR Value 10k
SYMBOL cap -240 160 R90
WINDOW 0 0 32 VBottom 2
WINDOW 3 32 32 VTop 2
SYMATTR InstName C2
SYMATTR Value 470n
SYMBOL voltage 480 96 R0
WINDOW 123 0 0 Left 0
WINDOW 39 0 0 Left 0
SYMATTR InstName V2
SYMATTR Value 10
SYMBOL cap 592 128 R0
SYMATTR InstName C3
SYMATTR Value 100n
SYMBOL res -16 -512 R0
SYMATTR InstName R4
SYMATTR Value 10k
SYMBOL res -16 -272 R0
SYMATTR InstName R5
SYMATTR Value 10k
SYMBOL cap 0 -336 R90
WINDOW 0 0 32 VBottom 2
WINDOW 3 32 32 VTop 2
SYMATTR InstName C4
SYMATTR Value 470n
SYMBOL voltage 288 832 R180
WINDOW 0 24 96 Left 2
WINDOW 3 24 16 Left 2
WINDOW 123 0 0 Left 0
WINDOW 39 0 0 Left 0
SYMATTR InstName V3
SYMATTR Value 5
SYMBOL voltage 288 976 R180
WINDOW 0 24 96 Left 2
WINDOW 3 24 16 Left 2
WINDOW 123 0 0 Left 0
WINDOW 39 0 0 Left 0
SYMATTR InstName V4
SYMATTR Value 5
SYMBOL Opamps\\opamp2 288 784 R0
SYMATTR InstName U2
SYMATTR Value TL081
SYMATTR SpiceModel TL081
SYMATTR Value2 TL081
SYMBOL cap 288 576 R90
WINDOW 0 0 32 VBottom 2
WINDOW 3 32 32 VTop 2
SYMATTR InstName C5
SYMATTR Value 90p
SYMBOL res 144 848 R90
WINDOW 0 0 56 VBottom 2
WINDOW 3 32 56 VTop 2
SYMATTR InstName R6
SYMATTR Value 100K
SYMBOL res 0 848 R90
WINDOW 0 0 56 VBottom 2
WINDOW 3 32 56 VTop 2
SYMATTR InstName R7
SYMATTR Value 100K
SYMBOL cap 160 864 R0
SYMATTR InstName C6
SYMATTR Value 45p
SYMBOL voltage -160 -320 R0
WINDOW 123 0 0 Left 0
WINDOW 39 0 0 Left 0
SYMATTR InstName V1
SYMATTR Value SINE(0 6 500 0 0 90)
TEXT -368 -72 Left 2 !.tran 30m
TEXT -360 -96 Left 2 !.include CD4046Bg.sub
TEXT 224 1016 Left 2 !.include TL081.lib
TEXT -368 -136 Left 2 !*.step param R 70k 150k 10k
